code/opendss/Bus_37/ieee37_VLN_Node.Txt

LINE-GROUND and LINE-LINE VOLTAGES BY BUS & NODE

Bus       Node    VLN (kV)   Angle      pu     Base kV    Node-Node   VLL (kV)  Angle      pu

SOURCEBUS 1       132.79 /_    0.0   0.99999   230.000        1-2        230 /_   30.0   0.99999
   -      2       132.79 /_ -120.0   0.99999   230.000        2-3        230 /_  -90.0   0.99999
   -      3       132.79 /_  120.0   0.99999   230.000        3-1        230 /_  150.0   0.99999
799 ..... 1       2.5146 /_   -6.4   0.90739     4.800        1-2     4.5995 /_   27.9   0.95822
   -      2       2.8933 /_ -122.8     1.044     4.800        2-3     4.6412 /_  -93.1   0.96692
   -      3        2.564 /_  120.9   0.92522     4.800        3-1     4.5501 /_  147.0   0.94793
709 ..... 1            0 /_    5.2         0     4.800        1-2 3.1435E-165 /_   13.0 6.5489E-166
   -      2   2.2228E-165 /_ -164.3 8.0207E-166     4.800        2-3 4.4455E-165 /_ -162.1 9.2615E-166
   -      3   2.2228E-165 /_   21.2 8.0207E-166     4.800        3-1          0 /_   37.1         0
775 ..... 1            0 /_    5.2         0     0.480        1-2          0 /_   13.0         0
   -      2            0 /_ -164.3         0     0.480        2-3          0 /_ -162.1         0
   -      3            0 /_   21.2         0     0.480        3-1          0 /_   37.1         0
701 ..... 1        2.803 /_   -2.2    1.0114     4.800        1-2     4.9366 /_   27.9    1.0285
   -      2       2.8766 /_ -122.9     1.038     4.800        2-3     4.9459 /_  -93.8    1.0304
   -      3       2.8084 /_  116.2    1.0134     4.800        3-1     4.8191 /_  146.9     1.004
702 ..... 1       2.7925 /_   -2.2    1.0077     4.800        1-2     4.9217 /_   27.8    1.0254
   -      2       2.8682 /_ -123.0     1.035     4.800        2-3     4.9289 /_  -93.9    1.0269
   -      3       2.7967 /_  116.1    1.0092     4.800        3-1     4.7981 /_  146.9   0.99961
705 ..... 1       2.7902 /_   -2.2    1.0068     4.800        1-2     4.9186 /_   27.8    1.0247
   -      2       2.8657 /_ -123.0    1.0341     4.800        2-3     4.9224 /_  -93.9    1.0255
   -      3       2.7924 /_  116.1    1.0076     4.800        3-1     4.7919 /_  146.9   0.99832
713 ..... 1       2.7885 /_   -2.2    1.0062     4.800        1-2     4.9151 /_   27.8     1.024
   -      2       2.8638 /_ -123.0    1.0334     4.800        2-3     4.9199 /_  -93.9     1.025
   -      3       2.7912 /_  116.1    1.0072     4.800        3-1     4.7895 /_  146.9   0.99781
703 ..... 1        2.788 /_   -2.3     1.006     4.800        1-2     4.9138 /_   27.8    1.0237
   -      2       2.8646 /_ -123.0    1.0337     4.800        2-3     4.9244 /_  -93.9    1.0259
   -      3       2.7941 /_  116.0    1.0082     4.800        3-1     4.7919 /_  146.8   0.99832
727 ..... 1       2.7848 /_   -2.3    1.0049     4.800        1-2     4.9085 /_   27.8    1.0226
   -      2       2.8623 /_ -123.0    1.0328     4.800        2-3     4.9214 /_  -93.9    1.0253
   -      3       2.7922 /_  116.0    1.0076     4.800        3-1     4.7873 /_  146.8   0.99736
730 ..... 1            0 /_    5.2         0     4.800        1-2 3.1435E-165 /_   13.0 6.5489E-166
   -      2   2.2228E-165 /_ -164.3 8.0207E-166     4.800        2-3 4.4455E-165 /_ -162.1 9.2615E-166
   -      3   2.2228E-165 /_   21.1 8.0207E-166     4.800        3-1          0 /_   36.9         0
704 ..... 1       2.7843 /_   -2.2    1.0047     4.800        1-2     4.9067 /_   27.8    1.0222
   -      2       2.8574 /_ -123.1    1.0311     4.800        2-3     4.9076 /_  -93.9    1.0224
   -      3       2.7848 /_  116.1    1.0049     4.800        3-1     4.7808 /_  146.9   0.99599
714 ..... 1       2.7837 /_   -2.2    1.0045     4.800        1-2     4.9054 /_   27.8     1.022
   -      2       2.8568 /_ -123.1    1.0309     4.800        2-3     4.9071 /_  -93.9    1.0223
   -      3       2.7847 /_  116.1    1.0048     4.800        3-1     4.7804 /_  146.9   0.99591
720 ..... 1       2.7806 /_   -2.2    1.0034     4.800        1-2     4.9008 /_   27.7     1.021
   -      2       2.8511 /_ -123.1    1.0288     4.800        2-3     4.8916 /_  -94.0    1.0191
   -      3       2.7754 /_  116.1    1.0015     4.800        3-1     4.7691 /_  147.0   0.99357
742 ..... 1         2.79 /_   -2.2    1.0068     4.800        1-2     4.9169 /_   27.8    1.0244
   -      2       2.8637 /_ -123.0    1.0333     4.800        2-3     4.9184 /_  -93.9    1.0247
   -      3       2.7908 /_  116.1    1.0071     4.800        3-1      4.791 /_  146.9   0.99812
712 ..... 1        2.789 /_   -2.2    1.0064     4.800        1-2      4.918 /_   27.8    1.0246
   -      2       2.8657 /_ -123.0    1.0341     4.800        2-3     4.9216 /_  -93.9    1.0253
   -      3       2.7911 /_  116.1    1.0071     4.800        3-1     4.7889 /_  146.9   0.99769
706 ..... 1       2.7806 /_   -2.2    1.0034     4.800        1-2     4.9003 /_   27.7    1.0209
   -      2       2.8502 /_ -123.1    1.0285     4.800        2-3     4.8896 /_  -94.0    1.0187
   -      3       2.7744 /_  116.1    1.0011     4.800        3-1     4.7685 /_  147.0   0.99345
725 ..... 1       2.7806 /_   -2.2    1.0034     4.800        1-2     4.8997 /_   27.7    1.0208
   -      2       2.8495 /_ -123.2    1.0282     4.800        2-3     4.8879 /_  -94.0    1.0183
   -      3       2.7738 /_  116.1    1.0009     4.800        3-1     4.7682 /_  147.0   0.99338
707 ..... 1       2.7792 /_   -2.2    1.0029     4.800        1-2     4.8919 /_   27.7    1.0192
   -      2       2.8395 /_ -123.2    1.0246     4.800        2-3     4.8666 /_  -93.9    1.0139
   -      3       2.7646 /_  116.2   0.99757     4.800        3-1     4.7617 /_  147.1   0.99201
724 ..... 1       2.7791 /_   -2.2    1.0028     4.800        1-2     4.8903 /_   27.6    1.0188
   -      2       2.8373 /_ -123.2    1.0238     4.800        2-3      4.862 /_  -93.9    1.0129
   -      3       2.7627 /_  116.3   0.99691     4.800        3-1     4.7608 /_  147.2   0.99183
722 ..... 1        2.779 /_   -2.2    1.0028     4.800        1-2      4.891 /_   27.7     1.019
   -      2       2.8383 /_ -123.2    1.0242     4.800        2-3     4.8641 /_  -93.9    1.0134
   -      3       2.7634 /_  116.3   0.99717     4.800        3-1     4.7608 /_  147.1   0.99184
708 ..... 1            0 /_    5.1         0     4.800        1-2 3.1435E-165 /_   13.0 6.5489E-166
   -      2   2.2228E-165 /_ -164.3 8.0207E-166     4.800        2-3 4.4455E-165 /_ -162.1 9.2615E-166
   -      3   2.2228E-165 /_   21.2 8.0207E-166     4.800        3-1          0 /_   37.4         0
733 ..... 1            0 /_    5.1         0     4.800        1-2 3.1435E-165 /_   13.0 6.5489E-166
   -      2   2.2228E-165 /_ -164.3 8.0207E-166     4.800        2-3 4.4455E-165 /_ -162.1 9.2615E-166
   -      3   2.2228E-165 /_   21.2 8.0207E-166     4.800        3-1          0 /_   37.5         0
732 ..... 1            0 /_    5.0         0     4.800        1-2 3.1435E-165 /_   13.0 6.5489E-166
   -      2   2.2228E-165 /_ -164.3 8.0207E-166     4.800        2-3 4.4455E-165 /_ -162.1 9.2615E-166
   -      3   2.2228E-165 /_   21.3 8.0207E-166     4.800        3-1          0 /_   37.6         0
731 ..... 1            0 /_    5.2         0     4.800        1-2 3.1435E-165 /_   13.0 6.5489E-166
   -      2   2.2228E-165 /_ -164.3 8.0207E-166     4.800        2-3 4.4455E-165 /_ -162.1 9.2615E-166
   -      3   2.2228E-165 /_   21.2 8.0207E-166     4.800        3-1          0 /_   37.1         0
710 ..... 1            0 /_    4.7         0     4.800        1-2 3.8499E-165 /_   12.9 8.0207E-166
   -      2   2.2228E-165 /_ -164.3 8.0207E-166     4.800        2-3 4.4455E-165 /_ -162.0 9.2615E-166
   -      3   2.2228E-165 /_   21.5 8.0207E-166     4.800        3-1          0 /_   38.3         0
735 ..... 1            0 /_    4.6         0     4.800        1-2 3.8499E-165 /_   12.9 8.0207E-166
   -      2   2.2228E-165 /_ -164.3 8.0207E-166     4.800        2-3 4.4455E-165 /_ -162.0 9.2615E-166
   -      3   2.2228E-165 /_   21.5 8.0207E-166     4.800        3-1          0 /_   38.6         0
736 ..... 1            0 /_    4.7         0     4.800        1-2 3.8499E-165 /_   12.9 8.0207E-166
   -      2   2.2228E-165 /_ -164.3 8.0207E-166     4.800        2-3 4.4455E-165 /_ -162.0 9.2615E-166
   -      3   2.2228E-165 /_   21.5 8.0207E-166     4.800        3-1          0 /_   38.3         0
711 ..... 1            0 /_    5.5         0     4.800        1-2 3.8499E-165 /_   13.1 8.0207E-166
   -      2   2.2228E-165 /_ -164.3 8.0207E-166     4.800        2-3 4.4455E-165 /_ -162.1 9.2615E-166
   -      3   2.2228E-165 /_   21.2 8.0207E-166     4.800        3-1          0 /_   37.9         0
741 ..... 1            0 /_    5.5         0     4.800        1-2 3.8499E-165 /_   13.1 8.0207E-166
   -      2   2.2228E-165 /_ -164.3 8.0207E-166     4.800        2-3 4.4455E-165 /_ -162.1 9.2615E-166
   -      3   2.2228E-165 /_   21.2 8.0207E-166     4.800        3-1          0 /_   37.9         0
740 ..... 1            0 /_    5.5         0     4.800        1-2 3.8499E-165 /_   13.1 8.0207E-166
   -      2   2.2228E-165 /_ -164.3 8.0207E-166     4.800        2-3 4.4455E-165 /_ -162.1 9.2615E-166
   -      3   2.2228E-165 /_   21.2 8.0207E-166     4.800        3-1          0 /_   38.0         0
718 ..... 1       2.7807 /_   -2.2    1.0034     4.800        1-2      4.899 /_   27.8    1.0206
   -      2       2.8543 /_ -123.0    1.0299     4.800        2-3      4.906 /_  -93.9    1.0221
   -      3       2.7848 /_  116.1    1.0049     4.800        3-1     4.7785 /_  146.9   0.99551
744 ..... 1       2.7831 /_   -2.3    1.0043     4.800        1-2     4.9051 /_   27.8    1.0219
   -      2       2.8606 /_ -123.0    1.0322     4.800        2-3     4.9196 /_  -93.9    1.0249
   -      3       2.7915 /_  116.0    1.0073     4.800        3-1     4.7854 /_  146.8   0.99696
734 ..... 1            0 /_    5.1         0     4.800        1-2 3.8499E-165 /_   13.0 8.0207E-166
   -      2   2.2228E-165 /_ -164.3 8.0207E-166     4.800        2-3 4.4455E-165 /_ -162.1 9.2615E-166
   -      3   2.2228E-165 /_   21.3 8.0207E-166     4.800        3-1          0 /_   37.8         0
737 ..... 1            0 /_    5.2         0     4.800        1-2 3.8499E-165 /_   13.0 8.0207E-166
   -      2   2.2228E-165 /_ -164.3 8.0207E-166     4.800        2-3 4.4455E-165 /_ -162.1 9.2615E-166
   -      3   2.2228E-165 /_   21.3 8.0207E-166     4.800        3-1          0 /_   37.9         0
738 ..... 1            0 /_    5.4         0     4.800        1-2 3.8499E-165 /_   13.1 8.0207E-166
   -      2   2.2228E-165 /_ -164.3 8.0207E-166     4.800        2-3 4.4455E-165 /_ -162.1 9.2615E-166
   -      3   2.2228E-165 /_   21.2 8.0207E-166     4.800        3-1          0 /_   37.9         0
728 ..... 1        2.782 /_   -2.3    1.0039     4.800        1-2     4.9033 /_   27.8    1.0215
   -      2       2.8596 /_ -123.0    1.0319     4.800        2-3     4.9179 /_  -93.9    1.0246
   -      3       2.7904 /_  116.0    1.0069     4.800        3-1     4.7836 /_  146.8   0.99658
729 ..... 1       2.7823 /_   -2.3     1.004     4.800        1-2     4.9034 /_   27.8    1.0215
   -      2         2.86 /_ -123.0     1.032     4.800        2-3     4.9193 /_  -93.9    1.0249
   -      3       2.7915 /_  116.0    1.0073     4.800        3-1     4.7849 /_  146.8   0.99685
799R .... 1       2.8285 /_   -2.2    1.0206     4.800        1-2     4.9696 /_   27.9    1.0353
   -      2       2.8933 /_ -122.8     1.044     4.800        2-3     4.9817 /_  -93.5    1.0379
   -      3       2.8357 /_  116.4    1.0232     4.800        3-1     4.8708 /_  147.1    1.0147
